Version 4
SHEET 1 880 680
WIRE 208 128 64 128
WIRE 352 128 208 128
WIRE 208 208 64 208
WIRE 352 208 208 208
WIRE 208 272 208 208
FLAG 208 272 0
SYMBOL res 48 112 R0
SYMATTR InstName R1
SYMATTR Value 4
SYMBOL voltage 352 112 R0
SYMATTR InstName V1
SYMATTR Value 10
SYMBOL res 192 112 R0
SYMATTR InstName R2
SYMATTR Value 10
TEXT 46 296 Left 2 !.op
