* Z:\home\artbil\Documents\M-moire-Ingi\Draft1.asc
R1 N002 0 10
R2 N003 0 5
V1 N001 N003 10
C1 N001 N002 0.2
.tran 1
.backanno
.end
